examples/test_perturbation_outputs/pert_min_loss/pglib_opf_case2383wp_k.m
%% MATPOWER Case Format : Version 2
function mpc = pglib_opf_case2383wp_k
mpc.version = '2';

%%-----  Power Flow Data  -----%%
%% system MVA base
mpc.baseMVA = 100.0;
%% bus data
%    bus_i    type    Pd    Qd    Gs    Bs    area    Vm    Va    baseKV    zone    Vmax    Vmin
mpc.bus = [
	1	1	0.0	0.0	0.0	0.0	1	1.03	0.0	220.0	1	1.11	0.95				
	2	1	0.0	0.0	0.0	0.0	1	1.03	0.0	220.0	1	1.11	0.95				
	3	1	0.0	0.0	0.0	0.0	1	1.03	0.0	220.0	1	1.11	0.95				
	4	1	0.0	0.0	0.0	0.0	1	1.03	0.0	220.0	1	1.11	0.95				
	5	1	0.0	0.0	0.0	0.0	1	1.03	0.0	220.0	1	1.11	0.95				
	6	1	0.0	0.0	0.0	0.0	1	1.0	0.0	400.0	1	1.05	0.95				
	7	1	0.0	0.0	0.0	0.0	1	1.03	0.0	220.0	1	1.11	0.95				
	8	1	0.0	0.0	0.0	0.0	1	1.0	0.0	400.0	1	1.05	0.95				
	9	1	0.0	0.0	0.0	0.0	1	1.0	0.0	400.0	1	1.05	0.95				
	10	2	12.23	9.0	0.0	0.0	1	1.03	0.0	220.0	1	1.11	0.95				
	11	1	0.0	0.0	0.0	0.0	1	1.03	0.0	220.0	1	1.11	0.95				
	12	1	0.0	0.0	0.0	0.0	1	1.03	0.0	220.0	1	1.11	0.95				
	13	1	0.0	0.0	0.0	0.0	1	1.03	0.0	220.0	1	1.11	0.95				
	14	1	0.0	0.0	0.0	0.0	1	1.03	0.0	220.0	1	1.11	0.95				
	15	1	0.0	0.0	0.0	0.0	1	1.0	0.0	400.0	1	1.05	0.95				
	16	2	54.88000000000001	100.0	0.0	0.0	1	1.03	0.0	220.0	1	1.11	0.95				
	17	2	77.0	150.0	0.0	0.0	1	1.03	0.0	220.0	1	1.11	0.95				
	18	3	153.0	350.0	0.0	0.0	1	1.0	0.0	400.0	1	1.05	0.95				
	19	1	0.0	0.0	0.0	0.0	1	1.03	0.0	220.0	1	1.11	0.95				
	20	1	0.0	0.0	0.0	0.0	1	1.0	0.0	400.0	1	1.05	0.95				
	21	1	0.0	0.0	0.0	0.0	1	1.03	0.0	220.0	1	1.11	0.95				
	22	1	0.0	0.0	0.0	0.0	1	1.03	0.0	220.0	1	1.11	0.95				
	23	1	0.0	0.0	0.0	0.0	1	1.03	0.0	220.0	2	1.11	0.95				
	24	1	0.0	0.0	0.0	0.0	1	1.03	0.0	220.0	2	1.11	0.95				
	25	1	0.0	0.0	0.0	0.0	1	1.03	0.0	220.0	2	1.11	0.95				
	26	1	0.0	0.0	0.0	0.0	1	1.03	0.0	220.0	2	1.11	0.95				
	27	1	0.0	0.0	0.0	0.0	1	1.03	0.0	220.0	2	1.11	0.95				
	28	1	0.0	0.0	0.0	0.0	1	1.03	0.0	220.0	2	1.11	0.95				
	29	2	25.980000000000004	60.0	0.0	0.0	1	1.03	0.0	220.0	2	1.11	0.95				
	30	2	25.980000000000004	60.0	0.0	0.0	1	1.03	0.0	220.0	2	1.11	0.95				
	31	2	20.98	50.0	0.0	0.0	1	1.0	0.0	400.0	2	1.05	0.95				
	32	1	0.0	0.0	0.0	0.0	1	1.0	0.0	400.0	2	1.05	0.95				
	33	1	0.0	0.0	0.0	0.0	1	1.03	0.0	220.0	2	1.11	0.95				
	34	1	0.0	0.0	0.0	0.0	1	1.0	0.0	400.0	2	1.05	0.95				
	35	1	0.0	0.0	0.0	0.0	1	1.0	0.0	400.0	2	1.05	0.95				
	36	1	0.0	0.0	0.0	0.0	1	1.0	0.0	400.0	2	1.05	0.95				
	37	1	0.0	0.0	0.0	0.0	1	1.03	0.0	220.0	2	1.11	0.95				
	38	1	0.0	0.0	0.0	0.0	1	1.03	0.0	220.0	2	1.11	0.95				
	39	1	0.0	0.0	0.0	0.0	1	1.0	0.0	400.0	2	1.05	0.95				
	40	1	0.0	0.0	0.0	0.0	1	1.0	0.0	400.0	2	1.05	0.95				
	41	2	11.99	30.0	0.0	0.0	1	1.03	0.0	220.0	2	1.11	0.95				
	42	2	11.99	30.0	0.0	0.0	1	1.03	0.0	220.0	2	1.11	0.95				
	43	2	23.98	60.0	0.0	0.0	1	1.0	0.0	400.0	2	1.05	0.95				
	44	2	23.98	60.0	0.0	0.0	1	1.0	0.0	400.0	2	1.05	0.95				
	45	2	159.84	75.0	0.0	0.0	1	1.03	0.0	220.0	2	1.11	0.95				
	46	1	0.0	0.0	0.0	0.0	1	1.03	0.0	220.0	2	1.11	0.95				
	47	1	0.0	0.0	0.0	0.0	1	1.03	0.0	220.0	2	1.11	0.95				
	48	1	0.0	0.0	0.0	0.0	1	1.03	0.0	220.0	2	1.11	0.95				
	49	1	0.0	0.0	0.0	0.0	1	1.03	0.0	220.0	2	1.11	0.95				
	50	1	0.0	0.0	0.0	0.0	1	1.0	0.0	400.0	2	1.05	0.95				
	51	1	0.0	0.0	0.0	0.0	1	1.0	0.0	400.0	2	1.05	0.95				
	52	1	0.0	0.0	0.0	0.0	1	1.03	0.0	220.0	2	1.11	0.95				
	53	1	0.0	0.0	0.0	0.0	1	1.03	0.0	220.0	2	1.11	0.95				
	54	1	0.0	0.0	0.0	0.0	1	1.03	0.0	220.0	2	1.11	0.95				
	55	1	0.0	0.0	0.0	0.0	1	1.03	0.0	220.0	2	1.11	0.95				
	56	1	0.0	0.0	0.0	0.0	1	1.03	0.0	220.0	3	1.11	0.95				
	57	1	22.98	10.96	0.0	0.0	1	1.03	0.0	220.0	3	1.11	0.95				
	58	1	21.98	5.79	0.0	0.0	1	1.03	0.0	220.0	3	1.11	0.95				
	59	1	0.0	0.0	0.0	0.0	1	1.03	0.0	220.0	3	1.11	0.95				
	60	1	0.0	0.0	0.0	0.0	1	1.03	0.0	220.0	3	1.11	0.95				
	61	1	0.0	0.0	0.0	0.0	1	1.03	0.0	220.0	3	1.11	0.95				
	62	1	0.0	0.0	0.0	0.0	1	1.03	0.0	220.0	3	1.11	0.95				
	63	2	37.37	52.68999999999999	0.0	0.0	1	1.03	0.0	220.0	3	1.11	0.95				
	64	2	35.37	55.32	0.0	0.0	1	1.03	0.0	220.0	3	1.11	0.95				
	65	1	13.390000000000002	2.02	0.0	0.0	1	1.03	0.0	220.0	3	1.11	0.95				
	66	1	0.0	0.0	0.0	0.0	1	1.03	0.0	220.0	3	1.11	0.95				
	67	2	60.4	92.1	0.0	0.0	1	1.0	0.0	400.0	3	1.05	0.95				
	68	1	0.0	0.0	0.0	0.0	1	1.03	0.0	220.0	3	1.11	0.95				
	69	1	0.0	0.0	0.0	0.0	1	1.03	0.0	220.0	3	1.11	0.95				
	70	1	0.0	0.0	0.0	0.0	1	1.03	0.0	220.0	3	1.11	0.95				
	71	1	0.0	0.0	0.0	0.0	1	1.03	0.0	220.0	3	1.11	0.95				
	72	1	0.0	0.0	0.0	0.0	1	1.03	0.0	220.0	3	1.11	0.95				
	73	1	0.0	0.0	0.0	0.0	1	1.03	0.0	220.0	3	1.11	0.95				
	74	1	0.0	0.0	0.0	0.0	1	1.03	0.0	220.0	3	1.11	0.95				
	75	1	0.0	0.0	0.0	0.0	1	1.0	0.0	400.0	3	1.05	0.95				
	76	1	0.0	0.0	0.0	0.0	1	1.0	0.0	400.0	3	1.05	0.95				
	77	1	0.0	0.0	0.0	0.0	1	1.03	0.0	220.0	3	1.11	0.95				
	78	1	0.0	0.0	0.0	0.0	1	1.03	0.0	220.0	3	1.11	0.95				
	79	1	0.0	0.0	0.0	0.0	1	1.03	0.0	220.0	3	1.11	0.95				
	80	1	0.0	0.0	0.0	0.0	1	1.03	0.0	220.0	3	1.11	0.95				
	81	1	0.0	0.0	0.0	0.0	1	1.03	0.0	220.0	3	1.11	0.95				
	82	1	0.0	0.0	0.0	0.0	1	1.03	0.0	220.0	3	1.11	0.95				
	83	2	15.990000000000002	22.97	0.0	0.0	1	1.03	0.0	220.0	3	1.11	0.95				
	84	2	15.79	22.27	0.0	0.0	1	1.03	0.0	220.0	3	1.11	0.95				
	85	2	9.99	17.01	0.0	0.0	1	1.03	0.0	220.0	3	1.11	0.95				
	86	2	9.99	16.66	0.0	0.0	1	1.03	0.0	220.0	3	1.11	0.95				
	87	1	11.09	16.22	0.0	0.0	1	1.03	0.0	220.0	3	1.11	0.95				
	88	1	0.0	0.0	0.0	0.0	1	1.03	0.0	220.0	3	1.11	0.95				
	89	1	0.0	0.0	0.0	0.0	1	1.03	0.0	220.0	3	1.11	0.95				
	90	1	0.0	0.0	0.0	0.0	1	1.03	0.0	220.0	3	1.11	0.95				
	91	1	0.0	0.0	0.0	0.0	1	1.03	0.0	220.0	3	1.11	0.95				
	92	1	0.0	0.0	0.0	0.0	1	1.0	0.0	400.0	3	1.05	0.95				
	93	2	9.99	16.39	0.0	0.0	1	1.03	0.0	220.0	3	1.11	0.95				
	94	1	0.0	0.0	0.0	0.0	1	1.03	0.0	220.0	3	1.11	0.95				
	95	2	6.890000000000001	8.15	0.0	0.0	1	1.03	0.0	220.0	3	1.11	0.95				
	96	1	0.0	0.0	0.0	0.0	1	1.03	0.0	220.0	3	1.11	0.95				
	97	2	8.69	5.26	0.0	0.0	1	1.03	0.0	220.0	3	1.11	0.95				
	98	1	0.0	0.0	0.0	0.0	1	1.0	0.0	400.0	3	1.05	0.95				
	99	1	0.0	0.0	0.0	0.0	1	1.0	0.0	400.0	3	1.05	0.95				
	100	1	0.0	0.0	0.0	0.0	1	1.0	0.0	400.0	3	1.05	0.95				
	101	1	0.0	0.0	0.0	0.0	1	1.0	0.0	400.0	3	1.05	0.95				
	102	1	0.0	0.0	0.0	0.0	1	1.03	0.0	220.0	3	1.11	0.95				
	103	2	18.09	23.76	0.0	0.0	1	1.03	0.0	220.0	3	1.11	0.95				
	104	2	33.68	46.11	0.0	0.0	1	1.03	0.0	220.0	3	1.11	0.95				
	105	2	33.78	62.95	0.0	0.0	1	1.0	0.0	400.0	3	1.05	0.95				
	106	1	0.0	0.0	0.0	0.0	1	1.0	0.0	400.0	3	1.05	0.95				
	107	1	0.0	0.0	0.0	0.0	1	1.03	0.0	220.0	3	1.11	0.95				
	108	1	0.0	0.0	0.0	0.0	1	1.03	0.0	220.0	3	1.11	0.95				
	109	2	1.0	22.36	0.0	0.0	1	1.03	0.0	220.0	3	1.11	0.95				
	110	2	1.0	22.18	0.0	0.0	1	1.03	0.0	220.0	3	1.11	0.95				
	111	2	26.49	18.0	0.0	0.0	1	1.03	0.0	220.0	4	1.11	0.95				
	112	1	0.0	0.0	0.0	0.0	1	1.03	0.0	220.0	4	1.11	0.95				
	113	1	0.0	0.0	0.0	0.0	1	1.03	0.0	220.0	4	1.11	0.95				
	114	1	0.0	0.0	0.0	0.0	1	1.03	0.0	220.0	4	1.11	0.95				
	115	1	0.0	0.0	0.0	0.0	1	1.0	0.0	400.0	4	1.05	0.95				
	116	1	0.0	0.0	0.0	0.0	1	1.0	0.0	400.0	4	1.05	0.95				
	117	1	0.0	0.0	0.0	0.0	1	1.03	0.0	220.0	4	1.11	0.95				
	118	1	0.0	0.0	0.0	0.0	1	1.03	0.0	220.0	4	1.11	0.95				
	119	1	0.0	0.0	0.0	0.0	1	1.03	0.0	220.0	4	1.11	0.95				
	120	1	0.0	0.0	0.0	0.0	1	1.03	0.0	220.0	4	1.11	0.95				
	121	1	0.0	0.0	0.0	0.0	1	1.03	0.0	220.0	4	1.11	0.95				
	122	1	0.0	0.0	0.0	0.0	1	1.03	0.0	220.0	4	1.11	0.95				
	123	2	5.5	7.000000000000001	0.0	0.0	1	1.03	0.0	220.0	4	1.11	0.95				
	124	2	8.79	17.0	0.0	0.0	1	1.03	0.0	220.0	4	1.11	0.95				
	125	2	35.7	18.3	0.0	0.0	1	1.03	0.0	220.0	4	1.11	0.95				
	126	1	25.28	15.9	0.0	0.0	1	1.03	0.0	220.0	4	1.11	0.95				
	127	2	25.71	15.299999999999999	0.0	0.0	1	1.0	0.0	400.0	4	1.05	0.95				
	128	1	0.0	0.0	0.0	0.0	1	1.0	0.0	400.0	4	1.05	0.95				
	129	1	0.0	0.0	0.0	0.0	1	1.03	0.0	220.0	4	1.11	0.95				
	130	1	0.0	0.0	0.0	0.0	1	1.03	0.0	220.0	4	1.11	0.95				
	131	2	68.67	70.0	0.0	0.0	1	1.03	0.0	220.0	4	1.11	0.95				
	132	2	33.0	45.0	0.0	0.0	1	1.03	0.0	220.0	4	1.11	0.95				
	133	1	0.0	0.0	0.0	0.0	1	1.0	0.0	400.0	4	1.05	0.95				
	134	1	0.0	0.0	0.0	0.0	1	1.0	0.0	400.0	4	1.05	0.95				
	135	1	0.0	0.0	0.0	0.0	1	1.03	0.0	220.0	4	1.11	0.95				
	136	1	0.0	0.0	0.0	0.0	1	1.03	0.0	220.0	4	1.11	0.95				
	137	1	0.0	0.0	0.0	0.0	1	1.0	0.0	400.0	4	1.05	0.95				
	138	1	0.0	0.0	0.0	0.0	1	1.0	0.0	400.0	4	1.05	0.95				
	139	2	33.2	22.6	0.0	0.0	1	1.03	0.0	220.0	4	1.11	0.95				
	140	2	29.23	19.6	0.0	0.0	1	1.03	0.0	220.0	4	1.11	0.95				
	141	1	0.0	0.0	0.0	0.0	1	1.03	0.0	220.0	4	1.11	0.95				
	142	1	0.0	0.0	0.0	0.0	1	1.03	0.0	220.0	4	1.11	0.95				
	143	1	0.0	0.0	0.0	0.0	1	1.03	0.0	220.0	4	1.11	0.95				
	144	1	0.0	0.0	0.0	0.0	1	1.03	0.0	220.0	4	1.11	0.95				
	145	1	0.0	0.0	0.0	0.0	1	1.0	0.0	400.0	4	1.05	0.95				
	146	1	0.0	0.0	0.0	0.0	1	1.0	0.0	400.0	4	1.05	0.95				
	147	1	0.0	0.0	0.0	0.0	1	1.03	0.0	220.0	4	1.11	0.95				
	148	1	0.0	0.0	0.0	0.0	1	1.03	0.0	220.0	4	1.11	0.95				
	149	1	0.0	0.0	0.0	0.0	1	1.03	0.0	220.0	4	1.11	0.95				
	150	1	0.0	0.0	0.0	0.0	1	1.03	0.0	220.0	4	1.11	0.95				
	151	1	0.0	0.0	0.0	0.0	1	1.03	0.0	220.0	4	1.11	0.95				
	152	1	0.0	0.0	0.0	0.0	1	1.03	0.0	220.0	4	1.11	0.95				
	153	1	0.0	0.0	0.0	0.0	1	1.03	0.0	220.0	4	1.11	0.95				
	154	1	0.0	0.0	0.0	0.0	1	1.03	0.0	220.0	4	1.11	0.95				
	155	1	0.0	0.0	0.0	0.0	1	1.03	0.0	220.0	5	1.11	0.95				
	156	1	0.0	0.0	0.0	0.0	1	1.03	0.0	220.0	5	1.11	0.95				
	157	1	0.0	0.0	0.0	0.0	1	1.0	0.0	400.0	5	1.05	0.95				
	158	1	0.0	0.0	0.0	0.0	1	1.0	0.0	400.0	5	1.05	0.95				
	159	1	0.0	0.0	0.0	0.0	1	1.0	0.0	400.0	5	1.05	0.95				
	160	1	0.0	0.0	0.0	0.0	1	1.0	0.0	400.0	5	1.05	0.95				
	161	1	0.0	0.0	0.0	0.0	1	1.03	0.0	220.0	5	1.11	0.95				
	162	1	0.0	0.0	0.0	0.0	1	1.03	0.0	220.0	5	1.11	0.95				
	163	1	0.0	0.0	0.0	0.0	1	1.03	0.0	220.0	5	1.11	0.95				
	164	1	0.0	0.0	0.0	0.0	1	1.03	0.0	220.0	5	1.11	0.95				
	165	1	0.0	0.0	0.0	0.0	1	1.0	0.0	400.0	5	1.05	0.95				
	166	1	0.0	0.0	0.0	0.0	1	1.03	0.0	220.0	5	1.11	0.95				
	167	1	0.0	0.0	0.0	0.0	1	1.03	0.0	220.0	5	1.11	0.95				
	168	1	0.0	0.0	0.0	0.0	1	1.0	0.0	400.0	5	1.05	0.95				
	169	1	0.0	0.0	0.0	0.0	1	1.0	0.0	400.0	5	1.05	0.95				
	170	1	0.0	0.0	0.0	0.0	1	1.03	0.0	220.0	5	1.11	0.95				
	171	1	0.0	0.0	0.0	0.0	1	1.03	0.0	220.0	5	1.11	0.95				
	172	1	0.0	0.0	0.0	0.0	1	1.03	0.0	220.0	5	1.11	0.95				
	173	1	0.0	0.0	0.0	0.0	1	1.03	0.0	220.0	5	1.11	0.95				
	174	1	0.0	0.0	0.0	0.0	1	1.03	0.0	220.0	5	1.11	0.95				
	175	1	0.0	0.0	0.0	0.0	1	1.03	0.0	220.0	5	1.11	0.95				
	176	2	0.0	40.0	0.0	0.0	1	1.0	0.0	400.0	5	1.05	0.95				
	177	2	0.0	40.0	0.0	0.0	1	1.0	0.0	400.0	5	1.05	0.95				
	178	1	0.0	0.0	0.0	0.0	1	1.03	0.0	220.0	5	1.11	0.95				
	179	1	0.0	0.0	0.0	0.0	1	1.03	0.0	220.0	5	1.11	0.95				
	180	2	339.85	49.6	0.0	0.0	2	1.0	0.0	400.0	6	1.05	0.95				
	181	2	0.0	0.0	0.0	0.0	3	1.03	0.0	220.0	6	1.11	0.95				
	182	2	0.0	0.0	0.0	0.0	5	1.0	0.0	400.0	6	1.05	0.95				
	183	1	150.0	0.0	0.0	0.0	3	1.0	0.0	400.0	6	1.05	0.95				
	184	2	317.34	50.3	0.0	0.0	2	1.03	0.0	220.0	6	1.11	0.95				
	185	2	362.43	36.7	0.0	0.0	2	1.0	0.0	400.0	6	1.05	0.95				
	186	2	33.33	1.0	0.0	0.0	5	1.03	0.0	220.0	6	1.11	0.95				
	187	1	7.12	1.5	0.0	0.0	1	1.035	0.0	110.0	1	1.12	0.95				
	188	1	7.629999999999999	1.0	0.0	0.0	1	1.035	0.0	110.0	1	1.12	0.95				
	189	1	9.77	8.7	0.0	0.0	1	1.035	0.0	110.0	1	1.12	0.95				
	190	1	6.12	1.5	0.0	0.0	1	1.035	0.0	110.0	1	1.12	0.95				
	191	1	6.12	1.6	0.0	0.0	1	1.035	0.0	110.0	1	1.12	0.95				
	192	2	30.56	12.0	0.0	0.0	1	1.035	0.0	110.0	1	1.12	0.95				
	193	1	15.28	3.0	0.0	0.0	1	1.035	0.0	110.0	1	1.12	0.95				
	194	1	0.0	0.0	0.0	0.0	1	1.035	0.0	110.0	1	1.12	0.95				
	195	1	8.14	2.0	0.0	0.0	1	1.035	0.0	110.0	1	1.12	0.95				
	196	2	6.92	1.5	0.0	0.0	1	1.035	0.0	110.0	1	1.12	0.95				
	197	1	6.92	1.5	0.0	0.0	1	1.035	0.0	110.0	1	1.12	0.95				
	198	2	12.32	1.7000000000000002	0.0	0.0	1	1.035	0.0	110.0	1	1.12	0.95				
	199	1	1.43	0.5	0.0	0.0	1	1.035	0.0	110.0	1	1.12	0.95				
	200	1	1.08	0.5	0.0	0.0	1	1.035	0.0	110.0	1	1.12	0.95				
...
];

%% generator data
%    bus    Pg    Qg    Qmax    Qmin    Vg    mBase    status    Pmax    Pmin    Pc1    Pc2    Qc1min    Qc1max    Qc2min    Qc2max    ramp_agc    ramp_10    ramp_30    ramp_q    apf
mpc.gen = [
	10	235.0	60.0	120.0	0.0	1.03	168.0	1	400.0	70.0															
	16	420.0	200.0	440.00000000000006	-40.0	1.03	823.0	1	720.0	120.0															
	17	600.0	300.0	660.0	-60.0	1.03	1234.0	1	1080.0	120.0															
	18	1320.0	700.0	1540.0	-140.0	1.0	2879.0	1	2520.0	120.0															
	29	235.0	120.0	240.0	0.0	1.03	511.0	1	400.0	70.0															
	30	434.99999999999994	120.0	240.0	0.0	1.03	511.0	1	800.0	70.0															
	31	575.0	175.0	350.0	0.0	1.0	420.0	1	1000.0	150.0															
	41	135.0	60.0	120.0	0.0	1.03	241.0	1	200.0	70.0															
	42	240.0	60.0	120.0	0.0	1.03	241.0	1	409.99999999999994	70.0															
	43	240.0	120.0	240.0	0.0	1.0	482.0	1	409.99999999999994	70.0															
	44	240.0	120.0	240.0	0.0	1.0	482.0	1	409.99999999999994	70.0															
	45	40.67	10.5	21.0	0.0	1.03	49.0	1	42.2	39.14															
	63	397.5	151.0	302.0	0.0	1.03	473.0	1	650.0	145.0															
	64	297.5	156.5	311.0	2.0	1.03	475.0	1	450.0	145.0															
	67	484.99999999999994	224.5	449.0	0.0	1.0	864.0	1	750.0	220.00000000000003															
	83	182.5	50.5	190.0	-89.0	1.03	239.0	1	225.0	140.0															
	84	182.5	50.5	190.0	-89.0	1.03	251.0	1	225.0	140.0															
	85	80.0	37.5	125.0	-50.0	1.03	133.0	1	120.0	40.0															
	86	80.0	37.5	125.0	-50.0	1.03	133.0	1	120.0	40.0															
	93	100.0	47.5	90.0	5.0	1.03	123.0	1	120.0	80.0															
	95	80.0	47.5	68.0	27.0	1.03	105.0	1	110.00000000000001	50.0															
	97	85.43	47.5	68.0	27.0	1.03	105.0	1	87.6	83.26															
	103	280.0	47.5	177.0	-82.0	1.03	239.0	1	400.0	160.0															
	104	182.5	101.0	379.0	-177.0	1.03	490.0	1	225.0	140.0															
	105	295.0	94.0	353.0	-165.0	1.0	502.0	1	430.0	160.0															
	109	165.0	32.5	65.0	0.0	1.03	277.0	1	250.0	80.0															
	110	165.0	32.5	65.0	0.0	1.03	280.0	1	250.0	80.0															
	111	200.0	135.0	270.0	0.0	1.03	401.0	1	360.0	40.0															
	123	65.0	20.0	40.0	0.0	1.03	98.0	1	110.00000000000001	20.0															
	124	85.0	45.0	90.0	0.0	1.03	132.0	1	125.0	45.0															
	125	465.00000000000006	180.0	360.0	0.0	1.03	654.0	1	860.0	70.0															
	127	380.0	180.0	360.0	0.0	1.0	540.0	1	690.0	70.0															
	131	565.0	180.0	360.0	0.0	1.03	696.0	1	1060.0	70.0															
	132	335.0	240.0	480.0	0.0	1.03	732.0	1	600.0	70.0															
	139	335.0	180.0	360.0	0.0	1.03	714.0	1	600.0	70.0															
	140	135.0	60.0	120.0	0.0	1.03	240.0	1	200.0	70.0															
	176	335.0	50.0	220.00000000000003	-120.0	1.0	430.0	1	600.0	70.0															
	177	135.0	50.0	220.00000000000003	-120.0	1.0	430.0	1	200.0	70.0															
	180	0.0	0.0	50.563199999999995	-50.563199999999995	1.0	7485.0	1	0.0	0.0															
	181	174.5	0.0	78.4518	-78.4518	1.03	210.0	1	175.0	174.0															
	182	306.795	0.0	145.6185	-145.6185	1.0	13465.0	1	307.59	306.0															
	184	0.0	0.0	208.7361	-208.7361	1.03	8353.0	1	0.0	0.0															
	185	0.0	0.0	36.699	-36.699	1.0	14254.0	1	0.0	0.0															
	186	0.0	0.0	96.2922	-96.2922	1.03	7401.0	1	0.0	0.0															
	192	92.625	25.0	50.0	0.0	1.035	114.0	1	95.0	90.25															
	196	0.88	0.5	1.0	0.0	1.035	1.0	1	0.9000000000000001	0.86															
	198	0.78	0.5	1.0	0.0	1.035	1.0	1	0.8	0.76															
	205	14.625	5.0	10.0	0.0	1.035	18.0	1	15.0	14.249999999999998															
	213	10.725	4.0	8.0	0.0	1.035	13.0	1	11.0	10.45															
	264	2.44	1.0	2.0	0.0	1.035	3.0	1	2.5	2.38															
	269	5.85	2.5	5.0	0.0	1.035	7.0	1	6.0	5.7															
	277	68.25	21.0	42.0	0.0	1.035	84.0	1	70.0	66.5															
	278	58.5	20.0	40.0	0.0	1.035	72.0	1	60.0	56.99999999999999															
	279	58.5	20.0	40.0	0.0	1.035	72.0	1	60.0	56.99999999999999															
	281	117.0	45.0	90.0	0.0	1.035	144.0	1	120.0	113.99999999999999															
	282	39.0	20.0	40.0	0.0	1.035	48.0	1	40.0	38.0															
	289	2.44	1.5	3.0	0.0	1.035	3.0	1	2.5	2.38															
	294	1.95	0.5	1.0	0.0	1.035	2.0	1	2.0	1.9															
	314	1.465	0.5	1.0	0.0	1.035	2.0	1	1.5	1.43															
	328	42.9	10.5	21.0	0.0	1.035	53.0	1	44.0	41.8															
	329	42.9	10.5	21.0	0.0	1.035	53.0	1	44.0	41.8															
	330	42.9	10.5	21.0	0.0	1.035	53.0	1	44.0	41.8															
	331	41.925	10.5	21.0	0.0	1.035	52.0	1	43.0	40.85															
	334	1.465	0.5	1.0	0.0	1.035	2.0	1	1.5	1.43															
	346	135.0	60.0	120.0	0.0	1.035	180.0	1	200.0	70.0															
	347	10.0	7.5	15.0	0.0	1.035	12.0	1	10.0	10.0															
	359	1.465	0.5	1.0	0.0	1.035	2.0	1	1.5	1.43															
	365	4.975	1.5	3.0	0.0	1.035	6.0	1	5.1	4.85															
	382	7.8	2.5	5.0	0.0	1.035	10.0	1	8.0	7.6															
	383	7.8	2.5	5.0	0.0	1.035	10.0	1	8.0	7.6															
	385	5.85	2.0	4.0	0.0	1.035	7.0	1	6.0	5.7															
	390	4.39	1.5	3.0	0.0	1.035	5.0	1	4.5	4.28															
	395	9.75	4.0	8.0	0.0	1.035	12.0	1	10.0	9.5															
	404	2.925	1.5	3.0	0.0	1.035	4.0	1	3.0	2.85															
	426	3.12	1.0	2.0	0.0	1.035	4.0	1	3.2	3.04															
	444	0.975	0.5	1.0	0.0	1.035	1.0	1	1.0	0.95															
	451	4.39	1.5	3.0	0.0	1.035	5.0	1	4.5	4.28															
	482	0.975	0.5	1.0	0.0	1.035	1.0	1	1.0	0.95															
	492	1.95	0.5	1.0	0.0	1.035	2.0	1	2.0	1.9															
	493	228.14999999999998	65.0	130.0	0.0	1.035	281.0	1	234.0	222.30000000000004															
	494	228.14999999999998	65.0	130.0	0.0	1.035	281.0	1	234.0	222.30000000000004															
	514	112.12500000000001	45.0	90.0	0.0	1.035	138.0	1	114.99999999999999	109.25															
	515	112.12500000000001	45.0	90.0	0.0	1.035	138.0	1	114.99999999999999	109.25															
	525	5.85	2.0	4.0	0.0	1.035	7.0	1	6.0	5.7															
	536	5.85	3.0	6.0	0.0	1.035	7.0	1	6.0	5.7															
	537	3.415	1.5	3.0	0.0	1.035	4.0	1	3.5000000000000004	3.3300000000000005															
	556	2.635	0.5	1.0	0.0	1.035	3.0	1	2.7	2.57															
	580	1.56	0.5	1.0	0.0	1.035	2.0	1	1.6	1.52															
	584	2.635	1.0	2.0	0.0	1.035	3.0	1	2.7	2.57															
	585	3.9	1.0	2.0	0.0	1.035	5.0	1	4.0	3.8															
	607	0.78	0.0	0.0	0.0	1.035	1.0	1	0.8	0.76															
	612	135.0	60.0	120.0	0.0	1.035	256.0	1	200.0	70.0															
	613	135.0	60.0	120.0	0.0	1.035	256.0	1	200.0	70.0															
	615	1.365	0.5	1.0	0.0	1.035	2.0	1	1.4	1.33															
	623	7.41	2.5	5.0	0.0	1.035	9.0	1	7.6	7.22															
	639	9.36	2.0	4.0	0.0	1.035	12.0	1	9.6	9.12															
	651	4.585	1.0	2.0	0.0	1.035	6.0	1	4.7	4.47															
	654	1.365	0.5	1.0	0.0	1.035	2.0	1	1.4	1.33															
	664	6.045	3.0	6.0	0.0	1.035	7.0	1	6.2	5.89															
	670	2.635	1.0	2.0	0.0	1.035	3.0	1	2.7	2.57															
	674	0.975	0.0	0.0	0.0	1.035	1.0	1	1.0	0.95															
	688	136.0	60.0	120.0	0.0	1.035	242.0	1	202.0	70.0															
	692	1.365	0.5	1.0	0.0	1.035	2.0	1	1.4	1.33															
	699	3.705	1.0	2.0	0.0	1.035	5.0	1	3.8	3.61															
	712	1.17	0.5	1.0	0.0	1.035	1.0	1	1.2	1.14															
	730	6.7299999999999995	1.5	3.0	0.0	1.035	8.0	1	6.9	6.559999999999999															
	732	1.075	0.5	1.0	0.0	1.035	1.0	1	1.1	1.05															
	735	4.0	1.0	2.0	0.0	1.035	5.0	1	4.1	3.9															
	740	3.9	0.5	1.0	0.0	1.035	5.0	1	4.0	3.8															
	744	130.65	30.0	60.0	0.0	1.035	161.0	1	134.0	127.3															
	754	45.0	15.0	30.0	0.0	1.035	54.0	1	80.0	10.0															
	755	167.5	40.0	80.0	0.0	1.035	110.0	1	250.0	85.0															
	760	3.025	1.0	2.0	0.0	1.035	4.0	1	3.1	2.95															
	766	2.05	0.5	1.0	0.0	1.035	3.0	1	2.1	2.0															
	784	0.685	0.0	0.0	0.0	1.035	1.0	1	0.7	0.67															
	790	48.555	35.0	35.0	35.0	1.035	60.0	1	49.8	47.31															
	795	1.8450000000000002	1.0	1.0	1.0	1.035	2.0	1	1.8900000000000001	1.8000000000000003															
	798	2.915	3.0	3.0	3.0	1.035	4.0	1	2.99	2.84															
	814	43.795	21.0	42.0	0.0	1.035	54.0	1	44.92	42.67															
	834	39.0	41.5	83.0	0.0	1.035	110.0	1	55.00000000000001	23.0															
	878	2.915	0.0	0.0	0.0	1.035	4.0	1	2.99	2.84															
	884	2.43	0.0	0.0	0.0	1.035	3.0	1	2.49	2.37															
	892	31.074999999999996	24.0	42.0	6.0	1.035	38.0	1	31.869999999999997	30.28															
	895	8.735	7.000000000000001	7.000000000000001	7.000000000000001	1.035	11.0	1	8.96	8.51															
	901	3.5900000000000003	2.0	2.0	2.0	1.035	4.0	1	3.6799999999999997	3.5000000000000004															
	910	4.465	3.0	3.0	3.0	1.035	6.0	1	4.58	4.35															
	911	325.0	112.00000000000001	224.00000000000003	0.0	1.035	415.0	1	370.0	280.0															
	912	325.0	112.00000000000001	224.00000000000003	0.0	1.035	415.0	1	370.0	280.0															
	914	15.53	10.0	10.0	10.0	1.035	19.0	1	15.93	15.130000000000003															
	917	2.04	0.0	0.0	0.0	1.035	3.0	1	2.09	1.9900000000000002															
	919	21.36	12.0	12.0	12.0	1.035	26.0	1	21.91	20.81															
	920	1.94	0.0	0.0	0.0	1.035	2.0	1	1.9900000000000002	1.8900000000000001															
	929	62.135	39.5	50.0	28.999999999999996	1.035	77.0	1	63.73	60.53999999999999															
	959	2.43	1.0	1.0	1.0	1.035	3.0	1	2.49	2.37															
	968	0.685	0.0	0.0	0.0	1.035	1.0	1	0.7	0.67															
	993	3.88	1.0	1.0	1.0	1.035	5.0	1	3.9800000000000004	3.7800000000000002															
	994	1.94	1.0	1.0	1.0	1.035	2.0	1	1.9900000000000002	1.8900000000000001															
	995	60.0	19.0	38.0	0.0	1.035	60.0	1	100.0	20.0															
	996	35.0	19.0	38.0	0.0	1.035	60.0	1	50.0	20.0															
	997	35.0	19.0	38.0	0.0	1.035	60.0	1	50.0	20.0															
	1004	4.175	3.0	3.0	3.0	1.035	5.0	1	4.28	4.07															
	1024	0.1	0.0	0.0	0.0	1.035	0.0	1	0.1	0.1															
	1027	24.28	13.0	13.0	13.0	1.035	30.0	1	24.9	23.66															
	1028	2.915	3.0	3.0	3.0	1.035	4.0	1	2.99	2.84															
	1029	24.28	14.000000000000002	14.000000000000002	14.000000000000002	1.035	30.0	1	24.9	23.66															
	1053	58.265	26.5	53.0	0.0	1.035	72.0	1	59.760000000000005	56.769999999999996															
	1054	29.134999999999998	15.5	31.0	0.0	1.035	36.0	1	29.880000000000003	28.389999999999997															
	1105	7.77	10.0	10.0	10.0	1.035	10.0	1	7.969999999999999	7.57															
	1106	22.335	13.0	13.0	13.0	1.035	28.0	1	22.91	21.76															
	1107	10.295	3.0	3.0	3.0	1.035	13.0	1	10.56	10.03															
	1138	43.7	20.5	41.0	0.0	1.035	54.0	1	44.82	42.58															
	1140	150.0	56.00000000000001	199.0	-87.0	1.035	252.0	1	229.99999999999997	70.0															
	1141	147.5	50.5	190.0	-89.0	1.035	251.0	1	225.0	70.0															
	1175	36.895	20.0	20.0	20.0	1.035	45.0	1	37.84	35.95															
	1182	80.0	37.5	125.0	-50.0	1.035	133.0	1	120.0	40.0															
	1183	80.0	37.5	125.0	-50.0	1.035	133.0	1	120.0	40.0															
	1184	80.0	37.5	125.0	-50.0	1.035	133.0	1	120.0	40.0															
	1191	103.89500000000001	41.0	129.0	-47.0	1.035	128.0	1	106.56000000000002	101.23															
	1192	165.0	37.5	125.0	-50.0	1.035	123.0	1	250.0	80.0															
	1201	97.1	45.0	90.0	0.0	1.035	120.0	1	99.59	94.61															
	1202	97.1	45.0	90.0	0.0	1.035	120.0	1	99.59	94.61															
	1203	97.1	45.0	90.0	0.0	1.035	120.0	1	99.59	94.61															
	1232	50.495000000000005	20.5	41.0	0.0	1.035	62.0	1	51.790000000000006	49.2															
	1233	14.565	20.5	41.0	0.0	1.035	18.0	1	14.940000000000001	14.19															
	1244	18.445	20.0	20.0	20.0	1.035	23.0	1	18.92	17.97															
	1247	15.53	12.0	12.0	12.0	1.035	19.0	1	15.93	15.130000000000003															
	1250	192.26	75.5	151.0	0.0	1.035	237.0	1	197.19	187.33															
	1268	0.49	0.0	0.0	0.0	1.035	1.0	1	0.5	0.48															
	1316	0.975	0.0	0.0	0.0	1.035	1.0	1	1.0	0.95															
	1325	1.355	0.0	0.0	0.0	1.035	2.0	1	1.39	1.32															
	1349	1.455	0.0	0.0	0.0	1.035	2.0	1	1.49	1.42															
	1356	0.975	2.0	2.0	2.0	1.035	1.0	1	1.0	0.95															
	1359	0.78	1.0	1.0	1.0	1.035	1.0	1	0.8	0.76															
	1393	12.43	5.5	11.0	0.0	1.035	15.0	1	12.75	12.11															
	1403	4.175	1.0	1.0	1.0	1.035	5.0	1	4.28	4.07															
	1416	225.5	95.0	180.0	10.0	1.035	246.0	1	371.0	80.0															
	1417	100.0	62.5	120.0	5.0	1.035	123.0	1	120.0	80.0															
	1418	12.5	47.5	90.0	5.0	1.035	123.0	1	20.0	5.0															
	1426	257.5	47.5	68.0	27.0	1.035	106.0	1	495.0	20.0															
	1429	0.195	0.0	0.0	0.0	1.035	0.0	1	0.2	0.19															
	1469	0.585	0.0	0.0	0.0	1.035	1.0	1	0.6	0.57															
	1475	2.04	2.0	2.0	2.0	1.035	3.0	1	2.09	1.9900000000000002															
	1504	30.39	2.0	2.0	2.0	1.035	37.0	1	31.17	29.609999999999996															
	1505	47.58	4.0	4.0	4.0	1.035	59.0	1	48.8	46.36															
	1514	2.235	1.0	1.0	1.0	1.035	3.0	1	2.29	2.18															
	1534	0.295	0.0	0.0	0.0	1.035	0.0	1	0.3	0.29															
	1536	192.5	50.5	190.0	-89.0	1.035	251.0	1	225.0	160.0															
	1537	192.5	54.0	202.99999999999997	-95.0	1.035	255.0	1	225.0	160.0															
	1538	142.5	50.5	190.0	-89.0	1.035	255.0	1	215.0	70.0															
	1542	8.735	3.0	3.0	3.0	1.035	11.0	1	8.96	8.51															
	1543	1.17	0.0	0.0	0.0	1.035	1.0	1	1.2	1.14															
	1550	1.745	1.0	1.0	1.0	1.035	2.0	1	1.79	1.7000000000000002															
	1566	53.400000000000006	33.5	47.0	20.0	1.035	66.0	1	54.77000000000001	52.03															
	1587	62.145	27.0	27.0	27.0	1.035	77.0	1	63.739999999999995	60.54999999999999															
	1600	16.995	3.0	3.0	3.0	1.035	21.0	1	17.43	16.56															
	1602	80.0	45.0	90.0	0.0	1.035	144.0	1	120.0	40.0															
	1603	80.0	45.0	90.0	0.0	1.035	144.0	1	120.0	40.0															
	1609	0.295	0.0	0.0	0.0	1.035	0.0	1	0.3	0.29															
	1617	1.95	0.0	0.0	0.0	1.035	2.0	1	2.0	1.9															
	1620	1.56	0.0	0.0	0.0	1.035	2.0	1	1.6	1.52															
...
];

%% branch data
%    f_bus    t_bus    r    x    b    rateA    rateB    rateC    ratio    angle    status    angmin    angmax
mpc.branch = [
	16	1	0.00155	0.01169	0.0182	160.0	160.0	160.0	0	0	1	-29.999999999999996	29.999999999999996								
	355	1	0.00157	0.06612	0.0	160.0	160.0	160.0	1.0099	0.0	1	-29.999999999999996	29.999999999999996								
	17	2	0.00155	0.01169	0.0182	160.0	160.0	160.0	0	0	1	-29.999999999999996	29.999999999999996								
	354	2	0.00157	0.06612	0.0	160.0	160.0	160.0	1.022	0.0	1	-29.999999999999996	29.999999999999996								
	10	3	0.01068	0.07895	0.1226	274.0	274.0	274.0	0	0	1	-29.999999999999996	29.999999999999996								
	219	3	0.00165	0.06736	0.0	160.0	160.0	160.0	1.027	0.0	1	-29.999999999999996	29.999999999999996								
	220	3	0.00165	0.06736	0.0	160.0	160.0	160.0	0.9955	0.0	1	-29.999999999999996	29.999999999999996								
	7	4	0.01674	0.09711	0.14423	377.0	377.0	377.0	0	0	1	-29.999999999999996	29.999999999999996								
	11	4	0.00293	0.01599	0.02478	335.0	335.0	335.0	0	0	1	-29.999999999999996	29.999999999999996								
	14	4	0.00442	0.03223	0.04985	463.99999999999994	463.99999999999994	463.99999999999994	0	0	1	-29.999999999999996	29.999999999999996								
	16	4	0.00888	0.06665	0.08896	377.0	377.0	377.0	0	0	1	-29.999999999999996	29.999999999999996								
	22	4	0.00783	0.043	0.04962	350.0	350.0	350.0	0	0	1	-29.999999999999996	29.999999999999996								
	245	4	0.00165	0.06901	0.0	160.0	160.0	160.0	1.0594	0.0	1	-29.999999999999996	29.999999999999996								
	246	4	0.00165	0.06901	0.0	160.0	160.0	160.0	1.0448	0.0	1	-29.999999999999996	29.999999999999996								
	5	6	0.00064	0.0305	0.0	400.0	400.0	400.0	1.0435	0.6	1	-29.999999999999996	29.999999999999996								
	7	5	0.00525	0.03988	0.06195	381.0	381.0	381.0	0	0	1	-29.999999999999996	29.999999999999996								
	10	5	0.01459	0.11219	0.16553	381.0	381.0	381.0	0	0	1	-29.999999999999996	29.999999999999996								
	309	5	0.00165	0.0686	0.0	160.0	160.0	160.0	1.0646	0.0	1	-29.999999999999996	29.999999999999996								
	309	5	0.00165	0.0686	0.0	160.0	160.0	160.0	1.0523	0.0	1	-29.999999999999996	29.999999999999996								
	6	8	0.00112	0.01329	0.34125	1316.0	1316.0	1316.0	0	0	1	-29.999999999999996	29.999999999999996								
	6	9	0.00299	0.03675	0.9184	1427.0	1427.0	1427.0	0	0	1	-29.999999999999996	29.999999999999996								
	15	6	0.00298	0.03417	0.93504	1427.0	1427.0	1427.0	0	0	1	-29.999999999999996	29.999999999999996								
	31	6	0.0015	0.01506	0.4032	1385.0	1385.0	1385.0	0	0	1	-29.999999999999996	29.999999999999996								
	310	6	0.0015	0.06188	0.0	250.0	250.0	250.0	1.0613	0.0	1	-29.999999999999996	29.999999999999996								
	12	7	0.01211	0.08742	0.14017	381.0	381.0	381.0	0	0	1	-29.999999999999996	29.999999999999996								
	13	7	0.00205	0.01326	0.02243	335.0	335.0	335.0	0	0	1	-29.999999999999996	29.999999999999996								
	19	7	0.0057	0.0407	0.06021	323.0	323.0	323.0	0	0	1	-29.999999999999996	29.999999999999996								
	21	7	0.00093	0.00651	0.01113	160.0	160.0	160.0	0	0	1	-29.999999999999996	29.999999999999996								
	29	7	0.01269	0.07498	0.1302	362.0	362.0	362.0	0	0	1	-29.999999999999996	29.999999999999996								
	321	7	0.00041	0.03368	0.0	250.0	250.0	250.0	1.0323	0.0	1	-29.999999999999996	29.999999999999996								
	322	7	0.00165	0.06775	0.0	160.0	160.0	160.0	1.0569	0.0	1	-29.999999999999996	29.999999999999996								
	8	18	0.00336	0.03977	1.02163	1316.0	1316.0	1316.0	0	0	1	-29.999999999999996	29.999999999999996								
	332	9	0.00087	0.05244	-0.02144	330.0	330.0	330.0	1.0781	0.0	1	-29.999999999999996	29.999999999999996								
	171	10	0.01409	0.10413	0.15972	463.99999999999994	463.99999999999994	463.99999999999994	0	0	1	-29.999999999999996	29.999999999999996								
	346	10	0.00124	0.06839	0.0	160.0	160.0	160.0	1.0054	0.0	1	-29.999999999999996	29.999999999999996								
	347	10	0.00124	0.06839	0.0	160.0	160.0	160.0	1.024	0.0	1	-29.999999999999996	29.999999999999996								
	16	11	0.0057	0.03952	0.07553	463.99999999999994	463.99999999999994	463.99999999999994	0	0	1	-29.999999999999996	29.999999999999996								
	17	11	0.0057	0.03952	0.07553	463.99999999999994	463.99999999999994	463.99999999999994	0	0	1	-29.999999999999996	29.999999999999996								
	111	11	0.01068	0.06196	0.09496	394.0	394.0	394.0	0	0	1	-29.999999999999996	29.999999999999996								
	352	11	0.00165	0.06901	0.0	160.0	160.0	160.0	1.0412	0.0	1	-29.999999999999996	29.999999999999996								
	353	11	0.00165	0.06901	0.0	160.0	160.0	160.0	1.0559	0.0	1	-29.999999999999996	29.999999999999996								
	140	12	0.01465	0.10589	0.17085	463.99999999999994	463.99999999999994	463.99999999999994	0	0	1	-29.999999999999996	29.999999999999996								
	359	12	0.00155	0.06612	0.0	160.0	160.0	160.0	1.0395	0.0	1	-29.999999999999996	29.999999999999996								
	360	12	0.00157	0.06612	0.0	160.0	160.0	160.0	1.059	0.0	1	-29.999999999999996	29.999999999999996								
	29	13	0.01345	0.08114	0.14113	339.0	339.0	339.0	0	0	1	-29.999999999999996	29.999999999999996								
	365	13	0.00165	0.06901	0.0	160.0	160.0	160.0	1.0312	0.0	1	-29.999999999999996	29.999999999999996								
	366	13	0.00165	0.06901	0.0	160.0	160.0	160.0	0.9872	0.0	1	-29.999999999999996	29.999999999999996								
	17	14	0.00384	0.02853	0.04588	463.99999999999994	463.99999999999994	463.99999999999994	0	0	1	-29.999999999999996	29.999999999999996								
	367	14	0.00157	0.06798	0.0	160.0	160.0	160.0	1.0664	0.0	1	-29.999999999999996	29.999999999999996								
	368	14	0.00165	0.06901	0.0	160.0	160.0	160.0	1.0777	0.0	1	-29.999999999999996	29.999999999999996								
	18	15	0.00358	0.04262	1.0944	1662.0	1662.0	1662.0	0	0	1	-29.999999999999996	29.999999999999996								
	15	165	0.00207	0.02474	0.664	831.0	831.0	831.0	0	0	1	-29.999999999999996	29.999999999999996								
	374	15	0.0015	0.06188	0.0	250.0	250.0	250.0	1.1502	0.0	1	-29.999999999999996	29.999999999999996								
	16	18	0.00036	0.02519	0.0	500.0	500.0	500.0	1.0605	0.0	1	-29.999999999999996	29.999999999999996								
	16	73	0.00909	0.0624	0.11142	463.99999999999994	463.99999999999994	463.99999999999994	0	0	1	-29.999999999999996	29.999999999999996								
	17	18	0.00036	0.02519	0.0	500.0	500.0	500.0	1.0607	0.0	1	-29.999999999999996	29.999999999999996								
	17	74	0.00868	0.06405	0.09699	463.99999999999994	463.99999999999994	463.99999999999994	0	0	1	-29.999999999999996	29.999999999999996								
	20	18	0.00063	0.00749	0.39226	1427.0	1427.0	1427.0	0	0	1	-29.999999999999996	29.999999999999996								
	75	18	0.00219	0.02369	0.59584	1434.0	1434.0	1434.0	0	0	1	-29.999999999999996	29.999999999999996								
	18	76	0.00137	0.01625	0.41184	1662.0	1662.0	1662.0	0	0	1	-29.999999999999996	29.999999999999996								
	18	101	0.00231	0.02769	0.70144	1662.0	1662.0	1662.0	0	0	1	-29.999999999999996	29.999999999999996								
	124	19	0.01696	0.12366	0.19699	463.99999999999994	463.99999999999994	463.99999999999994	0	0	1	-29.999999999999996	29.999999999999996								
	425	19	0.00165	0.06818	0.0	160.0	160.0	160.0	1.0241	0.0	1	-29.999999999999996	29.999999999999996								
	67	20	0.00331	0.03425	0.85888	831.0	831.0	831.0	0	0	1	-29.999999999999996	29.999999999999996								
	447	20	0.00137	0.06119	-0.01504	250.0	250.0	250.0	1.0796	0.0	1	-29.999999999999996	29.999999999999996								
	448	20	0.00137	0.06119	-0.01504	250.0	250.0	250.0	1.0923	0.0	1	-29.999999999999996	29.999999999999996								
	502	21	0.00165	0.07107	0.0	160.0	160.0	160.0	0.9922	0.0	1	-29.999999999999996	29.999999999999996								
	112	22	0.00465	0.02618	0.02962	362.0	362.0	362.0	0	0	1	-29.999999999999996	29.999999999999996								
	526	22	0.00165	0.06901	0.0	160.0	160.0	160.0	1.0685	0.0	1	-29.999999999999996	29.999999999999996								
	527	22	0.00165	0.06901	0.0	160.0	160.0	160.0	1.0424	0.0	1	-29.999999999999996	29.999999999999996								
	37	23	0.01163	0.07031	0.1058	394.0	394.0	394.0	0	0	1	-29.999999999999996	29.999999999999996								
	46	23	0.00837	0.04868	0.07348	457.0	457.0	457.0	0	0	1	-29.999999999999996	29.999999999999996								
	53	23	0.01122	0.06558	0.09835	274.0	274.0	274.0	0	0	1	-29.999999999999996	29.999999999999996								
	540	23	0.0014	0.0668	0.0	160.0	160.0	160.0	1.0182	0.0	1	-29.999999999999996	29.999999999999996								
	54	24	0.00769	0.05727	0.08789	160.0	160.0	160.0	0	0	1	-29.999999999999996	29.999999999999996								
	545	24	0.00151	0.06715	0.0	160.0	160.0	160.0	1.0161	0.0	1	-29.999999999999996	29.999999999999996								
	41	25	0.00556	0.04145	0.0636	274.0	274.0	274.0	0	0	1	-29.999999999999996	29.999999999999996								
	53	25	0.00452	0.03368	0.05169	463.99999999999994	463.99999999999994	463.99999999999994	0	0	1	-29.999999999999996	29.999999999999996								
	54	25	0.00019	0.0014	0.00213	463.99999999999994	463.99999999999994	463.99999999999994	0	0	1	-29.999999999999996	29.999999999999996								
	564	25	0.00157	0.07808	0.0	160.0	160.0	160.0	1.0276	0.0	1	-29.999999999999996	29.999999999999996								
	38	26	0.00698	0.05196	0.07967	160.0	160.0	160.0	0	0	1	-29.999999999999996	29.999999999999996								
	568	26	0.00149	0.06616	0.0	160.0	160.0	160.0	1.013	0.0	1	-29.999999999999996	29.999999999999996								
	28	27	0.0	0.0001	0.0	876.0	876.0	876.0	0	0	1	-29.999999999999996	29.999999999999996								
	33	27	0.0024	0.01494	0.02253	160.0	160.0	160.0	0	0	1	-29.999999999999996	29.999999999999996								
	48	27	0.01213	0.06215	0.09371	362.0	362.0	362.0	0	0	1	-29.999999999999996	29.999999999999996								
	27	74	0.01116	0.07231	0.10367	304.0	304.0	304.0	0	0	1	-29.999999999999996	29.999999999999996								
	47	28	0.00248	0.01798	0.02759	463.99999999999994	463.99999999999994	463.99999999999994	0	0	1	-29.999999999999996	29.999999999999996								
	28	88	0.01488	0.08161	0.1148	362.0	362.0	362.0	0	0	1	-29.999999999999996	29.999999999999996								
	30	29	0.0	0.0001	0.0	876.0	876.0	876.0	0	0	1	-29.999999999999996	29.999999999999996								
	29	32	0.00034	0.02097	0.0	500.0	500.0	500.0	1.0619	0.0	1	-29.999999999999996	29.999999999999996								
	45	29	0.00545	0.04021	0.06699	463.99999999999994	463.99999999999994	463.99999999999994	0	0	1	-29.999999999999996	29.999999999999996								
	48	29	0.00574	0.04283	0.06573	463.99999999999994	463.99999999999994	463.99999999999994	0	0	1	-29.999999999999996	29.999999999999996								
	613	29	0.00157	0.06775	0.0	160.0	160.0	160.0	1.0016	0.0	1	-29.999999999999996	29.999999999999996								
	46	30	0.00545	0.04021	0.06699	463.99999999999994	463.99999999999994	463.99999999999994	0	0	1	-29.999999999999996	29.999999999999996								
	49	30	0.00707	0.04541	0.06931	362.0	362.0	362.0	0	0	1	-29.999999999999996	29.999999999999996								
	32	31	0.0	0.0001	0.0	1593.0	1593.0	1593.0	0	0	1	-29.999999999999996	29.999999999999996								
	39	31	0.00176	0.02144	0.57344	1385.0	1385.0	1385.0	0	0	1	-29.999999999999996	29.999999999999996								
	36	32	0.00167	0.0189	0.54176	498.00000000000006	498.00000000000006	498.00000000000006	0	0	1	-29.999999999999996	29.999999999999996								
	615	33	0.00163	0.06946	0.0	160.0	160.0	160.0	1.0291	0.0	1	-29.999999999999996	29.999999999999996								
	35	34	0.0	0.0001	0.0	1593.0	1593.0	1593.0	0	0	1	-29.999999999999996	29.999999999999996								
	34	51	0.00113	0.01406	0.37488	1385.0	1385.0	1385.0	0	0	1	-29.999999999999996	29.999999999999996								
	183	34	0.00188	0.02287	0.6432	1385.0	1385.0	1385.0	0	0	1	-29.999999999999996	29.999999999999996								
	183	35	0.00188	0.02287	0.6432	1385.0	1385.0	1385.0	0	0	1	-29.999999999999996	29.999999999999996								
	617	35	0.00135	0.06052	0.0	250.0	250.0	250.0	1.0654	0.0	1	-29.999999999999996	29.999999999999996								
	644	36	0.00135	0.06052	0.0	250.0	250.0	250.0	1.1003	0.0	1	-29.999999999999996	29.999999999999996								
	645	36	0.00153	0.06156	0.0	250.0	250.0	250.0	1.0971	0.0	1	-29.999999999999996	29.999999999999996								
	38	37	0.0	0.0001	0.0	876.0	876.0	876.0	0	0	1	-29.999999999999996	29.999999999999996								
	663	37	0.00157	0.06616	0.0	160.0	160.0	160.0	1.0009	0.0	1	-29.999999999999996	29.999999999999996								
	55	38	0.00316	0.02076	0.03146	394.0	394.0	394.0	0	0	1	-29.999999999999996	29.999999999999996								
	40	39	0.0	0.0001	0.0	1593.0	1593.0	1593.0	0	0	1	-29.999999999999996	29.999999999999996								
	682	39	0.00139	0.05984	0.0	250.0	250.0	250.0	1.0603	0.0	1	-29.999999999999996	29.999999999999996								
	44	40	0.00109	0.01277	0.34176	1385.0	1385.0	1385.0	0	0	1	-29.999999999999996	29.999999999999996								
	679	40	0.0014	0.06235	0.0	250.0	250.0	250.0	1.0996	0.0	1	-29.999999999999996	29.999999999999996								
	42	41	0.0	0.0001	0.0	876.0	876.0	876.0	0	0	1	-29.999999999999996	29.999999999999996								
	41	43	0.00081	0.03	0.0	400.0	400.0	400.0	1.0377	0.0	1	-29.999999999999996	29.999999999999996								
	80	41	0.00372	0.0438	0.10096	609.0	609.0	609.0	0	0	1	-29.999999999999996	29.999999999999996								
	47	42	0.00882	0.06564	0.10066	274.0	274.0	274.0	0	0	1	-29.999999999999996	29.999999999999996								
	54	42	0.00355	0.02643	0.04056	392.0	392.0	392.0	0	0	1	-29.999999999999996	29.999999999999996								
	689	42	0.00145	0.06839	0.0	160.0	160.0	160.0	1.0037	0.0	1	-29.999999999999996	29.999999999999996								
	44	43	0.0	0.0001	0.0	1593.0	1593.0	1593.0	0	0	1	-29.999999999999996	29.999999999999996								
	99	43	0.00169	0.01994	0.50624	831.0	831.0	831.0	0	0	1	-29.999999999999996	29.999999999999996								
	50	44	0.00094	0.01097	0.29376	1662.0	1662.0	1662.0	0	0	1	-29.999999999999996	29.999999999999996								
	46	45	0.0	0.0001	0.0	876.0	876.0	876.0	0	0	1	-29.999999999999996	29.999999999999996								
	49	45	0.01048	0.06097	0.09205	394.0	394.0	394.0	0	0	1	-29.999999999999996	29.999999999999996								
	706	47	0.00157	0.06775	0.0	160.0	160.0	160.0	1.0249	0.0	1	-29.999999999999996	29.999999999999996								
	707	47	0.00165	0.06775	0.0	160.0	160.0	160.0	1.0201	0.0	1	-29.999999999999996	29.999999999999996								
	49	48	0.0	0.0001	0.0	876.0	876.0	876.0	0	0	1	-29.999999999999996	29.999999999999996								
	717	48	0.00163	0.06783	0.0	160.0	160.0	160.0	1.023	0.0	1	-29.999999999999996	29.999999999999996								
	716	49	0.00143	0.06831	0.0	160.0	160.0	160.0	1.0238	0.0	1	-29.999999999999996	29.999999999999996								
	51	50	0.0	0.0001	0.0	1593.0	1593.0	1593.0	0	0	1	-29.999999999999996	29.999999999999996								
	98	50	0.0015	0.01788	0.4512	831.0	831.0	831.0	0	0	1	-29.999999999999996	29.999999999999996								
	100	50	0.00469	0.05544	1.4048	831.0	831.0	831.0	0	0	1	-29.999999999999996	29.999999999999996								
	726	50	0.00139	0.0608	0.0	250.0	250.0	250.0	1.0815	0.0	1	-29.999999999999996	29.999999999999996								
	727	51	0.0014	0.06235	0.0	250.0	250.0	250.0	1.0819	0.0	1	-29.999999999999996	29.999999999999996								
	53	52	0.00151	0.00878	0.01316	160.0	160.0	160.0	0	0	1	-29.999999999999996	29.999999999999996								
	754	52	0.00163	0.06754	0.0	160.0	160.0	160.0	1.0317	0.0	1	-29.999999999999996	29.999999999999996								
	181	55	0.01434	0.08353	0.12603	394.0	394.0	394.0	0	0	1	-29.999999999999996	29.999999999999996								
	778	55	0.00161	0.06762	0.0	160.0	160.0	160.0	0.9979	0.0	1	-29.999999999999996	29.999999999999996								
	74	56	0.00207	0.01281	0.02052	394.0	394.0	394.0	0	0	1	-29.999999999999996	29.999999999999996								
	796	56	0.00207	0.06777	-0.003	160.0	160.0	160.0	1.0389	0.0	1	-29.999999999999996	29.999999999999996								
	81	57	0.00083	0.00496	0.00726	137.0	137.0	137.0	0	0	1	-29.999999999999996	29.999999999999996								
	80	58	0.00083	0.00496	0.00726	137.0	137.0	137.0	0	0	1	-29.999999999999996	29.999999999999996								
	63	59	0.00207	0.01405	0.02265	362.0	362.0	362.0	0	0	1	-29.999999999999996	29.999999999999996								
	82	59	0.01116	0.07045	0.11606	362.0	362.0	362.0	0	0	1	-29.999999999999996	29.999999999999996								
	821	59	0.00165	0.06798	-0.00319	160.0	160.0	160.0	1.0178	0.0	1	-29.999999999999996	29.999999999999996								
	60	85	0.01095	0.0593	0.08441	362.0	362.0	362.0	0	0	1	-29.999999999999996	29.999999999999996								
	104	60	0.00599	0.04091	0.07212	463.99999999999994	463.99999999999994	463.99999999999994	0	0	1	-29.999999999999996	29.999999999999996								
	834	60	0.00145	0.06921	-0.00532	160.0	160.0	160.0	0.9936	0.0	1	-29.999999999999996	29.999999999999996								
	836	60	0.00372	0.12583	-0.00242	100.0	100.0	100.0	1.0154	0.0	1	-29.999999999999996	29.999999999999996								
	62	61	0.0	0.0001	0.0	876.0	876.0	876.0	0	0	1	-29.999999999999996	29.999999999999996								
	64	61	0.00517	0.03843	0.05876	463.99999999999994	463.99999999999994	463.99999999999994	0	0	1	-29.999999999999996	29.999999999999996								
	109	61	0.00083	0.0062	0.00958	463.99999999999994	463.99999999999994	463.99999999999994	0	0	1	-29.999999999999996	29.999999999999996								
	184	61	0.01219	0.07066	0.11742	274.0	274.0	274.0	0	0	1	-29.999999999999996	29.999999999999996								
	82	62	0.00165	0.01095	0.01955	463.99999999999994	463.99999999999994	463.99999999999994	0	0	1	-29.999999999999996	29.999999999999996								
	110	62	0.00083	0.0062	0.00949	463.99999999999994	463.99999999999994	463.99999999999994	0	0	1	-29.999999999999996	29.999999999999996								
	71	63	0.00475	0.03079	0.04879	362.0	362.0	362.0	0	0	1	-29.999999999999996	29.999999999999996								
	91	63	0.00455	0.02769	0.04608	394.0	394.0	394.0	0	0	1	-29.999999999999996	29.999999999999996								
	94	63	0.00186	0.0126	0.02236	463.99999999999994	463.99999999999994	463.99999999999994	0	0	1	-29.999999999999996	29.999999999999996								
	96	63	0.00826	0.04236	0.06118	362.0	362.0	362.0	0	0	1	-29.999999999999996	29.999999999999996								
	64	69	0.00434	0.02975	0.05266	463.99999999999994	463.99999999999994	463.99999999999994	0	0	1	-29.999999999999996	29.999999999999996								
	79	64	0.00351	0.02438	0.03998	362.0	362.0	362.0	0	0	1	-29.999999999999996	29.999999999999996								
	93	64	0.00186	0.0126	0.02236	463.99999999999994	463.99999999999994	463.99999999999994	0	0	1	-29.999999999999996	29.999999999999996								
	95	64	0.00826	0.04236	0.06118	362.0	362.0	362.0	0	0	1	-29.999999999999996	29.999999999999996								
	90	65	0.00785	0.04132	0.06389	394.0	394.0	394.0	0	0	1	-29.999999999999996	29.999999999999996								
	65	91	0.00227	0.01446	0.02585	394.0	394.0	394.0	0	0	1	-29.999999999999996	29.999999999999996								
	66	67	0.00031	0.02094	0.0	500.0	500.0	500.0	1.0616	0.0	1	-29.999999999999996	29.999999999999996								
	66	68	0.00248	0.02355	0.04763	457.0	457.0	457.0	0	0	1	-29.999999999999996	29.999999999999996								
	152	66	0.01033	0.08285	0.13959	463.99999999999994	463.99999999999994	463.99999999999994	0	0	1	-29.999999999999996	29.999999999999996								
	138	67	0.00194	0.02056	0.51584	866.0	866.0	866.0	0	0	1	-29.999999999999996	29.999999999999996								
	911	67	0.00156	0.06269	-0.00992	250.0	250.0	250.0	1.0656	0.0	1	-29.999999999999996	29.999999999999996								
	912	67	0.00156	0.06269	-0.00992	250.0	250.0	250.0	1.066	0.0	1	-29.999999999999996	29.999999999999996								
	68	78	0.00579	0.04153	0.06621	463.99999999999994	463.99999999999994	463.99999999999994	0	0	1	-29.999999999999996	29.999999999999996								
	978	68	0.00165	0.06694	-0.0031	160.0	160.0	160.0	1.0083	0.0	1	-29.999999999999996	29.999999999999996								
	979	68	0.00145	0.06653	-0.00319	160.0	160.0	160.0	1.006	0.0	1	-29.999999999999996	29.999999999999996								
	83	69	0.00145	0.00992	0.01762	463.99999999999994	463.99999999999994	463.99999999999994	0	0	1	-29.999999999999996	29.999999999999996								
	995	69	0.00145	0.0655	-0.00252	160.0	160.0	160.0	1.0107	0.0	1	-29.999999999999996	29.999999999999996								
	996	69	0.00145	0.07045	-0.00252	160.0	160.0	160.0	1.0025	0.0	1	-29.999999999999996	29.999999999999996								
	70	73	0.00145	0.00971	0.01626	457.0	457.0	457.0	0	0	1	-29.999999999999996	29.999999999999996								
	107	70	0.00062	0.00413	0.00697	457.0	457.0	457.0	0	0	1	-29.999999999999996	29.999999999999996								
	72	71	0.0	0.0001	0.0	876.0	876.0	876.0	0	0	1	-29.999999999999996	29.999999999999996								
	86	71	0.00165	0.00971	0.01423	362.0	362.0	362.0	0	0	1	-29.999999999999996	29.999999999999996								
	1059	71	0.00145	0.06983	-0.00232	160.0	160.0	160.0	1.0193	0.0	1	-29.999999999999996	29.999999999999996								
	1060	71	0.00165	0.06777	-0.00281	160.0	160.0	160.0	0.9558	0.0	1	-29.999999999999996	29.999999999999996								
	73	75	0.00075	0.02444	-0.00832	330.0	330.0	330.0	1.0544	-1.7	1	-29.999999999999996	29.999999999999996								
	87	73	0.00393	0.02851	0.04501	463.99999999999994	463.99999999999994	463.99999999999994	0	0	1	-29.999999999999996	29.999999999999996								
	74	76	0.00075	0.02469	-0.008	330.0	330.0	330.0	1.0606	-1.7	1	-29.999999999999996	29.999999999999996								
	74	108	0.00083	0.00517	0.00871	463.99999999999994	463.99999999999994	463.99999999999994	0	0	1	-29.999999999999996	29.999999999999996								
	76	75	0.0	0.0001	0.0	1593.0	1593.0	1593.0	0	0	1	-29.999999999999996	29.999999999999996								
	76	105	0.00244	0.02756	0.768	844.9999999999999	844.9999999999999	844.9999999999999	0	0	1	-29.999999999999996	29.999999999999996								
	84	77	0.00393	0.02665	0.04617	457.0	457.0	457.0	0	0	1	-29.999999999999996	29.999999999999996								
	85	77	0.00186	0.01384	0.02284	463.99999999999994	463.99999999999994	463.99999999999994	0	0	1	-29.999999999999996	29.999999999999996								
	1095	77	0.00165	0.06694	-0.0029	160.0	160.0	160.0	1.0162	0.0	1	-29.999999999999996	29.999999999999996								
	1096	77	0.00145	0.06736	-0.00658	160.0	160.0	160.0	1.0085	0.0	1	-29.999999999999996	29.999999999999996								
	78	103	0.00496	0.03368	0.05963	463.99999999999994	463.99999999999994	463.99999999999994	0	0	1	-29.999999999999996	29.999999999999996								
	1106	78	0.00145	0.06839	-0.00319	160.0	160.0	160.0	1.0272	0.0	1	-29.999999999999996	29.999999999999996								
	88	79	0.0031	0.02335	0.0362	463.99999999999994	463.99999999999994	463.99999999999994	0	0	1	-29.999999999999996	29.999999999999996								
	81	80	0.0	0.0001	0.0	876.0	876.0	876.0	0	0	1	-29.999999999999996	29.999999999999996								
	80	96	0.01591	0.0876	0.11684	362.0	362.0	362.0	0	0	1	-29.999999999999996	29.999999999999996								
	1114	80	0.00165	0.06694	-0.00232	160.0	160.0	160.0	0.9876	0.0	1	-29.999999999999996	29.999999999999996								
	93	81	0.01777	0.11674	0.16359	362.0	362.0	362.0	0	0	1	-29.999999999999996	29.999999999999996								
...
];

%%-----  OPF Data  -----%%
%% cost data
%    1    startup    shutdown    n    x1    y1    ...    xn    yn
%    2    startup    shutdown    n    c(n-1)    ...    c0
mpc.gencost = [
	2	0.0	0.0	2	117.95	0.0
	2	0.0	0.0	2	48.89	0.0
	2	0.0	0.0	2	98.47	0.0
	2	0.0	0.0	2	128.73	0.0
	2	0.0	0.0	2	158.23	0.0
	2	0.0	0.0	2	165.62	0.0
	2	0.0	0.0	2	71.22	0.0
	2	0.0	0.0	2	102.25	0.0
	2	0.0	0.0	2	147.83	0.0
	2	0.0	0.0	2	75.37	0.0
	2	0.0	0.0	2	86.01	0.0
	2	0.0	0.0	2	0.0	0.0
	2	0.0	0.0	2	68.74	0.0
	2	0.0	0.0	2	81.91	0.0
	2	0.0	0.0	2	81.88	0.0
	2	0.0	0.0	2	58.78	0.0
	2	0.0	0.0	2	85.57000000000001	0.0
	2	0.0	0.0	2	101.38	0.0
	2	0.0	0.0	2	122.43	0.0
	2	0.0	0.0	2	96.62	0.0
	2	0.0	0.0	2	106.73	0.0
	2	0.0	0.0	2	0.0	0.0
	2	0.0	0.0	2	151.94	0.0
	2	0.0	0.0	2	107.51	0.0
	2	0.0	0.0	2	103.53	0.0
	2	0.0	0.0	2	0.0	0.0
	2	0.0	0.0	2	0.0	0.0
	2	0.0	0.0	2	136.48	0.0
	2	0.0	0.0	2	157.46	0.0
	2	0.0	0.0	2	83.97	0.0
	2	0.0	0.0	2	170.74	0.0
	2	0.0	0.0	2	80.91	0.0
	2	0.0	0.0	2	147.6	0.0
	2	0.0	0.0	2	158.75	0.0
	2	0.0	0.0	2	146.94	0.0
	2	0.0	0.0	2	96.32000000000001	0.0
	2	0.0	0.0	2	0.0	0.0
	2	0.0	0.0	2	0.0	0.0
	2	0.0	0.0	2	0.0	0.0
	2	0.0	0.0	2	0.0	0.0
	2	0.0	0.0	2	0.0	0.0
	2	0.0	0.0	2	0.0	0.0
	2	0.0	0.0	2	0.0	0.0
	2	0.0	0.0	2	0.0	0.0
	2	0.0	0.0	2	0.0	0.0
	2	0.0	0.0	2	0.0	0.0
	2	0.0	0.0	2	0.0	0.0
	2	0.0	0.0	2	0.0	0.0
	2	0.0	0.0	2	0.0	0.0
	2	0.0	0.0	2	0.0	0.0
	2	0.0	0.0	2	0.0	0.0
	2	0.0	0.0	2	0.0	0.0
	2	0.0	0.0	2	0.0	0.0
	2	0.0	0.0	2	0.0	0.0
	2	0.0	0.0	2	0.0	0.0
	2	0.0	0.0	2	0.0	0.0
	2	0.0	0.0	2	0.0	0.0
	2	0.0	0.0	2	0.0	0.0
	2	0.0	0.0	2	0.0	0.0
	2	0.0	0.0	2	0.0	0.0
	2	0.0	0.0	2	0.0	0.0
	2	0.0	0.0	2	0.0	0.0
	2	0.0	0.0	2	0.0	0.0
	2	0.0	0.0	2	0.0	0.0
	2	0.0	0.0	2	134.98	0.0
	2	0.0	0.0	2	0.0	0.0
	2	0.0	0.0	2	0.0	0.0
	2	0.0	0.0	2	0.0	0.0
	2	0.0	0.0	2	0.0	0.0
	2	0.0	0.0	2	0.0	0.0
	2	0.0	0.0	2	0.0	0.0
	2	0.0	0.0	2	0.0	0.0
	2	0.0	0.0	2	0.0	0.0
	2	0.0	0.0	2	0.0	0.0
	2	0.0	0.0	2	0.0	0.0
	2	0.0	0.0	2	0.0	0.0
	2	0.0	0.0	2	0.0	0.0
	2	0.0	0.0	2	0.0	0.0
	2	0.0	0.0	2	0.0	0.0
	2	0.0	0.0	2	0.0	0.0
	2	0.0	0.0	2	0.0	0.0
	2	0.0	0.0	2	0.0	0.0
	2	0.0	0.0	2	0.0	0.0
	2	0.0	0.0	2	0.0	0.0
	2	0.0	0.0	2	0.0	0.0
	2	0.0	0.0	2	0.0	0.0
	2	0.0	0.0	2	0.0	0.0
	2	0.0	0.0	2	0.0	0.0
	2	0.0	0.0	2	0.0	0.0
	2	0.0	0.0	2	0.0	0.0
	2	0.0	0.0	2	0.0	0.0
	2	0.0	0.0	2	142.94	0.0
	2	0.0	0.0	2	128.22	0.0
	2	0.0	0.0	2	0.0	0.0
	2	0.0	0.0	2	0.0	0.0
	2	0.0	0.0	2	0.0	0.0
	2	0.0	0.0	2	0.0	0.0
	2	0.0	0.0	2	0.0	0.0
	2	0.0	0.0	2	0.0	0.0
	2	0.0	0.0	2	0.0	0.0
	2	0.0	0.0	2	0.0	0.0
	2	0.0	0.0	2	141.73	0.0
	2	0.0	0.0	2	0.0	0.0
	2	0.0	0.0	2	0.0	0.0
	2	0.0	0.0	2	0.0	0.0
	2	0.0	0.0	2	0.0	0.0
	2	0.0	0.0	2	0.0	0.0
	2	0.0	0.0	2	0.0	0.0
	2	0.0	0.0	2	0.0	0.0
	2	0.0	0.0	2	0.0	0.0
	2	0.0	0.0	2	100.82000000000001	0.0
	2	0.0	0.0	2	151.9	0.0
	2	0.0	0.0	2	0.0	0.0
	2	0.0	0.0	2	0.0	0.0
	2	0.0	0.0	2	0.0	0.0
	2	0.0	0.0	2	0.0	0.0
	2	0.0	0.0	2	0.0	0.0
	2	0.0	0.0	2	0.0	0.0
	2	0.0	0.0	2	0.0	0.0
	2	0.0	0.0	2	114.15	0.0
	2	0.0	0.0	2	0.0	0.0
	2	0.0	0.0	2	0.0	0.0
	2	0.0	0.0	2	0.0	0.0
	2	0.0	0.0	2	0.0	0.0
	2	0.0	0.0	2	0.0	0.0
	2	0.0	0.0	2	0.0	0.0
	2	0.0	0.0	2	87.95	0.0
	2	0.0	0.0	2	130.25	0.0
	2	0.0	0.0	2	0.0	0.0
	2	0.0	0.0	2	0.0	0.0
	2	0.0	0.0	2	0.0	0.0
	2	0.0	0.0	2	0.0	0.0
	2	0.0	0.0	2	0.0	0.0
	2	0.0	0.0	2	0.0	0.0
	2	0.0	0.0	2	0.0	0.0
	2	0.0	0.0	2	0.0	0.0
	2	0.0	0.0	2	0.0	0.0
	2	0.0	0.0	2	145.97	0.0
	2	0.0	0.0	2	137.58	0.0
	2	0.0	0.0	2	147.36	0.0
	2	0.0	0.0	2	0.0	0.0
	2	0.0	0.0	2	0.0	0.0
	2	0.0	0.0	2	0.0	0.0
	2	0.0	0.0	2	0.0	0.0
	2	0.0	0.0	2	0.0	0.0
	2	0.0	0.0	2	0.0	0.0
	2	0.0	0.0	2	0.0	0.0
	2	0.0	0.0	2	0.0	0.0
	2	0.0	0.0	2	0.0	0.0
	2	0.0	0.0	2	0.0	0.0
	2	0.0	0.0	2	0.0	0.0
	2	0.0	0.0	2	82.92	0.0
	2	0.0	0.0	2	133.59	0.0
	2	0.0	0.0	2	0.0	0.0
	2	0.0	0.0	2	152.95	0.0
	2	0.0	0.0	2	67.35	0.0
	2	0.0	0.0	2	134.93	0.0
	2	0.0	0.0	2	0.0	0.0
	2	0.0	0.0	2	61.32	0.0
	2	0.0	0.0	2	0.0	0.0
	2	0.0	0.0	2	0.0	0.0
	2	0.0	0.0	2	0.0	0.0
	2	0.0	0.0	2	0.0	0.0
	2	0.0	0.0	2	0.0	0.0
	2	0.0	0.0	2	0.0	0.0
	2	0.0	0.0	2	0.0	0.0
	2	0.0	0.0	2	0.0	0.0
	2	0.0	0.0	2	0.0	0.0
	2	0.0	0.0	2	0.0	0.0
	2	0.0	0.0	2	0.0	0.0
	2	0.0	0.0	2	0.0	0.0
	2	0.0	0.0	2	0.0	0.0
	2	0.0	0.0	2	0.0	0.0
	2	0.0	0.0	2	0.0	0.0
	2	0.0	0.0	2	0.0	0.0
	2	0.0	0.0	2	61.4	0.0
	2	0.0	0.0	2	114.99000000000001	0.0
	2	0.0	0.0	2	122.64	0.0
	2	0.0	0.0	2	118.84	0.0
	2	0.0	0.0	2	0.0	0.0
	2	0.0	0.0	2	0.0	0.0
	2	0.0	0.0	2	0.0	0.0
	2	0.0	0.0	2	0.0	0.0
	2	0.0	0.0	2	0.0	0.0
	2	0.0	0.0	2	0.0	0.0
	2	0.0	0.0	2	0.0	0.0
	2	0.0	0.0	2	143.83	0.0
	2	0.0	0.0	2	67.48	0.0
	2	0.0	0.0	2	88.0	0.0
	2	0.0	0.0	2	0.0	0.0
	2	0.0	0.0	2	0.0	0.0
	2	0.0	0.0	2	0.0	0.0
	2	0.0	0.0	2	0.0	0.0
	2	0.0	0.0	2	0.0	0.0
	2	0.0	0.0	2	0.0	0.0
	2	0.0	0.0	2	129.86	0.0
	2	0.0	0.0	2	108.16	0.0
	2	0.0	0.0	2	0.0	0.0
	2	0.0	0.0	2	0.0	0.0
	2	0.0	0.0	2	0.0	0.0
...
];

